<?xml version="1.0" encoding="UTF-8"?>
<net version="1.9.0" junctionCornerDetail="5" limitTurnSpeed="5.50" xmlns:xsi="http://www.w3.org/2001/XMLSchema-instance" xsi:noNamespaceSchemaLocation="http://sumo.dlr.de/xsd/net_file.xsd">
    <location netOffset="100.00,100.00" convBoundary="0.00,0.00,200.00,200.00" origBoundary="-100.00,-100.00,100.00,100.00" projParameter="!"/>
    
    <!-- Junction definitions -->
    <junction id="center" type="traffic_light" x="100.00" y="100.00" incLanes="north_to_center_0 east_to_center_0 south_to_center_0 west_to_center_0" intLanes=":center_0_0 :center_1_0 :center_2_0 :center_3_0 :center_4_0 :center_5_0 :center_6_0 :center_7_0 :center_8_0 :center_9_0 :center_10_0 :center_11_0" shape="96.80,109.60 103.20,109.60 103.60,106.80 104.20,104.60 105.00,102.90 106.00,101.60 107.20,100.70 108.60,100.20 109.60,96.80 109.60,103.20 112.40,103.60 114.60,104.20 116.30,105.00 117.60,106.00 118.50,107.20 119.00,108.60 103.20,109.60 102.90,112.40 102.20,114.60 101.00,116.30 99.40,117.60 97.50,118.50 95.40,119.00 90.40,103.20 89.60,102.90 87.40,102.20 85.70,101.00 84.40,99.40 83.50,97.50 83.00,95.40 96.80,90.40 97.10,89.60 97.80,87.40 99.00,85.70 100.60,84.40 102.50,83.50 104.60,83.00" radius="5.00"/>
    <junction id="east" type="dead_end" x="200.00" y="100.00" incLanes="center_to_east_0" intLanes="" shape="200.00,96.80 200.00,103.20"/>
    <junction id="north" type="dead_end" x="100.00" y="200.00" incLanes="center_to_north_0" intLanes="" shape="103.20,200.00 96.80,200.00"/>
    <junction id="south" type="dead_end" x="100.00" y="0.00" incLanes="center_to_south_0" intLanes="" shape="96.80,0.00 103.20,0.00"/>
    <junction id="west" type="dead_end" x="0.00" y="100.00" incLanes="center_to_west_0" intLanes="" shape="0.00,103.20 0.00,96.80"/>
    
    <!-- Edge definitions -->
    <edge id="center_to_east" from="center" to="east" priority="1">
        <lane id="center_to_east_0" index="0" speed="13.89" length="90.40" shape="108.60,100.20 200.00,100.00"/>
    </edge>
    <edge id="center_to_north" from="center" to="north" priority="1">
        <lane id="center_to_north_0" index="0" speed="13.89" length="90.40" shape="103.20,109.60 100.00,200.00"/>
    </edge>
    <edge id="center_to_south" from="center" to="south" priority="1">
        <lane id="center_to_south_0" index="0" speed="13.89" length="90.40" shape="96.80,90.40 100.00,0.00"/>
    </edge>
    <edge id="center_to_west" from="center" to="west" priority="1">
        <lane id="center_to_west_0" index="0" speed="13.89" length="90.40" shape="90.40,103.20 0.00,100.00"/>
    </edge>
    <edge id="east_to_center" from="east" to="center" priority="1">
        <lane id="east_to_center_0" index="0" speed="13.89" length="90.40" shape="200.00,96.80 109.60,96.80"/>
    </edge>
    <edge id="north_to_center" from="north" to="center" priority="1">
        <lane id="north_to_center_0" index="0" speed="13.89" length="90.40" shape="96.80,200.00 96.80,109.60"/>
    </edge>
    <edge id="south_to_center" from="south" to="center" priority="1">
        <lane id="south_to_center_0" index="0" speed="13.89" length="90.40" shape="103.20,0.00 103.20,90.40"/>
    </edge>
    <edge id="west_to_center" from="west" to="center" priority="1">
        <lane id="west_to_center_0" index="0" speed="13.89" length="90.40" shape="0.00,103.20 90.40,103.20"/>
    </edge>

    <!-- Traffic light definitions -->
    <tlLogic id="center" type="static" programID="0" offset="0">
        <phase duration="31" state="GGgrrrGGgrrr"/>
        <phase duration="4"  state="yygrrryygrrr"/>
        <phase duration="31" state="rrrGGgrrrGGg"/>
        <phase duration="4"  state="rrryygrrryyg"/>
    </tlLogic>

    <!-- Connection definitions -->
    <connection from="east_to_center" to="center_to_north" fromLane="0" toLane="0" via=":center_4_0" tl="center" linkIndex="4" dir="r" state="o"/>
    <connection from="east_to_center" to="center_to_west" fromLane="0" toLane="0" via=":center_5_0" tl="center" linkIndex="5" dir="s" state="o"/>
    <connection from="east_to_center" to="center_to_south" fromLane="0" toLane="0" via=":center_6_0" tl="center" linkIndex="6" dir="l" state="o"/>
    <connection from="north_to_center" to="center_to_west" fromLane="0" toLane="0" via=":center_0_0" tl="center" linkIndex="0" dir="r" state="o"/>
    <connection from="north_to_center" to="center_to_south" fromLane="0" toLane="0" via=":center_1_0" tl="center" linkIndex="1" dir="s" state="o"/>
    <connection from="north_to_center" to="center_to_east" fromLane="0" toLane="0" via=":center_2_0" tl="center" linkIndex="2" dir="l" state="o"/>
    <connection from="south_to_center" to="center_to_east" fromLane="0" toLane="0" via=":center_8_0" tl="center" linkIndex="8" dir="r" state="o"/>
    <connection from="south_to_center" to="center_to_north" fromLane="0" toLane="0" via=":center_9_0" tl="center" linkIndex="9" dir="s" state="o"/>
    <connection from="south_to_center" to="center_to_west" fromLane="0" toLane="0" via=":center_10_0" tl="center" linkIndex="10" dir="l" state="o"/>
    <connection from="west_to_center" to="center_to_south" fromLane="0" toLane="0" via=":center_3_0" tl="center" linkIndex="3" dir="r" state="o"/>
    <connection from="west_to_center" to="center_to_east" fromLane="0" toLane="0" via=":center_7_0" tl="center" linkIndex="7" dir="s" state="o"/>
    <connection from="west_to_center" to="center_to_north" fromLane="0" toLane="0" via=":center_11_0" tl="center" linkIndex="11" dir="l" state="o"/>
</net>
