<?xml version="1.0" encoding="UTF-8"?>
<routes>
    <!-- Vehicle types -->
    <vType id="car" accel="3.0" decel="6.0" sigma="0.5" length="5.0" minGap="2.5" maxSpeed="16.67" guiShape="passenger"/>
    <vType id="bus" accel="2.0" decel="4.0" sigma="0.5" length="12.0" minGap="3.0" maxSpeed="13.89" guiShape="bus"/>
    <vType id="truck" accel="1.0" decel="4.0" sigma="0.5" length="10.0" minGap="3.0" maxSpeed="11.11" guiShape="truck"/>
    <vType id="motorcycle" accel="4.0" decel="7.0" sigma="0.5" length="2.0" minGap="1.5" maxSpeed="19.44" guiShape="motorcycle"/>
    <vType id="bicycle" accel="2.0" decel="4.0" sigma="0.5" length="1.5" minGap="1.0" maxSpeed="5.56" guiShape="bicycle"/>
    
    <!-- Routes -->
    <route id="north_to_south" edges="north_to_center center_to_south"/>
    <route id="north_to_east" edges="north_to_center center_to_east"/>
    <route id="north_to_west" edges="north_to_center center_to_west"/>
    
    <route id="south_to_north" edges="south_to_center center_to_north"/>
    <route id="south_to_east" edges="south_to_center center_to_east"/>
    <route id="south_to_west" edges="south_to_center center_to_west"/>
    
    <route id="east_to_west" edges="east_to_center center_to_west"/>
    <route id="east_to_north" edges="east_to_center center_to_north"/>
    <route id="east_to_south" edges="east_to_center center_to_south"/>
    
    <route id="west_to_east" edges="west_to_center center_to_east"/>
    <route id="west_to_north" edges="west_to_center center_to_north"/>
    <route id="west_to_south" edges="west_to_center center_to_south"/>
    
    <!-- Traffic flow - regular pattern -->
    <flow id="flow_n_s" type="car" route="north_to_south" begin="0" end="3600" vehsPerHour="300"/>
    <flow id="flow_n_e" type="car" route="north_to_east" begin="0" end="3600" vehsPerHour="100"/>
    <flow id="flow_n_w" type="car" route="north_to_west" begin="0" end="3600" vehsPerHour="100"/>
    
    <flow id="flow_s_n" type="car" route="south_to_north" begin="0" end="3600" vehsPerHour="300"/>
    <flow id="flow_s_e" type="car" route="south_to_east" begin="0" end="3600" vehsPerHour="100"/>
    <flow id="flow_s_w" type="car" route="south_to_west" begin="0" end="3600" vehsPerHour="100"/>
    
    <flow id="flow_e_w" type="car" route="east_to_west" begin="0" end="3600" vehsPerHour="400"/>
    <flow id="flow_e_n" type="car" route="east_to_north" begin="0" end="3600" vehsPerHour="150"/>
    <flow id="flow_e_s" type="car" route="east_to_south" begin="0" end="3600" vehsPerHour="150"/>
    
    <flow id="flow_w_e" type="car" route="west_to_east" begin="0" end="3600" vehsPerHour="400"/>
    <flow id="flow_w_n" type="car" route="west_to_north" begin="0" end="3600" vehsPerHour="150"/>
    <flow id="flow_w_s" type="car" route="west_to_south" begin="0" end="3600" vehsPerHour="150"/>
    
    <!-- Add some buses -->
    <flow id="bus_n_s" type="bus" route="north_to_south" begin="0" end="3600" period="300"/>
    <flow id="bus_s_n" type="bus" route="south_to_north" begin="0" end="3600" period="300"/>
    <flow id="bus_e_w" type="bus" route="east_to_west" begin="0" end="3600" period="300"/>
    <flow id="bus_w_e" type="bus" route="west_to_east" begin="0" end="3600" period="300"/>
    
    <!-- Add some trucks -->
    <flow id="truck_n_s" type="truck" route="north_to_south" begin="0" end="3600" period="600"/>
    <flow id="truck_e_w" type="truck" route="east_to_west" begin="0" end="3600" period="400"/>
</routes>
